Version 4
SHEET 1 1832 680
WIRE 816 -880 816 -928
WIRE 1504 -864 1456 -864
WIRE 1632 -864 1584 -864
WIRE 816 -768 816 -800
WIRE 1456 -768 1456 -864
WIRE 1504 -768 1456 -768
WIRE 1632 -768 1632 -864
WIRE 1632 -768 1568 -768
WIRE 816 -640 816 -688
WIRE 1360 -624 1312 -624
WIRE 1456 -624 1456 -768
WIRE 1456 -624 1440 -624
WIRE 1504 -624 1456 -624
WIRE 1632 -608 1632 -768
WIRE 1632 -608 1568 -608
WIRE 1504 -592 1472 -592
WIRE 1312 -528 1312 -624
WIRE 720 -464 720 -512
WIRE 1472 -432 1472 -592
WIRE 720 -336 720 -384
WIRE -160 64 -160 32
WIRE 112 96 112 80
WIRE 208 96 208 16
WIRE 208 96 112 96
WIRE 208 128 208 96
WIRE -160 176 -160 144
WIRE 768 208 768 160
WIRE 208 224 208 208
WIRE 768 352 768 288
WIRE -160 384 -160 256
WIRE 208 400 208 304
WIRE 768 448 768 432
WIRE 1088 448 768 448
WIRE 768 496 768 448
WIRE 768 656 768 576
FLAG -160 384 0
FLAG -160 32 NOISE
FLAG 208 400 0
FLAG 208 16 WALL_INPUT
FLAG 720 -336 0
FLAG 816 -640 0
FLAG 720 -512 WALL_INPUT
FLAG 112 80 NOISE
FLAG 816 -928 amp_sensor
FLAG 1312 -528 0
FLAG 1472 -432 amp_sensor
FLAG 768 656 0
FLAG 768 160 WALL_INPUT
FLAG 1088 448 volt_sensor
FLAG 816 -304 0
SYMBOL bv -160 160 R0
SYMATTR InstName B1
SYMATTR Value V=(2*WHITE(4030*time))
SYMBOL Misc\\signal 208 208 R0
WINDOW 123 0 0 Left 2
WINDOW 39 0 0 Left 2
SYMATTR InstName V1
SYMATTR Value SINE(0 1100 60)
SYMBOL ind2 704 -480 R0
WINDOW 0 -9 31 Right 2
WINDOW 3 -27 78 Left 2
SYMATTR InstName lv1
SYMATTR Value 10
SYMATTR Type ind
SYMBOL ind2 800 -784 R0
WINDOW 0 43 31 Left 2
SYMATTR InstName lv2
SYMATTR Value 0.1
SYMATTR Type ind
SYMBOL res 800 -896 R0
SYMATTR InstName R1
SYMATTR Value 1
SYMBOL res 192 112 R0
SYMATTR InstName R2
SYMATTR Value 10
SYMBOL res -176 48 R0
SYMATTR InstName R3
SYMATTR Value 1
SYMBOL Opamps\\LT1077A 1536 -672 R0
SYMATTR InstName U1
SYMBOL res 1600 -880 R90
WINDOW 0 0 56 VBottom 2
WINDOW 3 32 56 VTop 2
SYMATTR InstName R4
SYMATTR Value 1k
SYMBOL res 1456 -640 R90
WINDOW 0 0 56 VBottom 2
WINDOW 3 32 56 VTop 2
SYMATTR InstName R6
SYMATTR Value 1k
SYMBOL cap 1568 -784 R90
WINDOW 0 0 32 VBottom 2
WINDOW 3 32 32 VTop 2
SYMATTR InstName C1
SYMATTR Value 1µ
SYMBOL res 752 480 R0
SYMATTR InstName R5
SYMATTR Value 1000000
SYMBOL res 752 336 R0
SYMATTR InstName R9
SYMATTR Value 50000000
SYMBOL res 752 192 R0
SYMATTR InstName R10
SYMATTR Value 50000000
SYMBOL res 800 -560 R0
SYMATTR InstName R7
SYMATTR Value 1
SYMBOL ind 800 -448 R0
SYMATTR InstName L1
TEXT 608 -264 Left 2 !K lv1 lv2 1
TEXT -192 424 Left 2 !.tran 0.1
