Version 4
SHEET 1 2240 964
WIRE 1136 -752 1136 -800
WIRE -208 -736 -448 -736
WIRE 1104 -736 1008 -736
WIRE 1280 -720 1168 -720
WIRE 1392 -720 1280 -720
WIRE -208 -704 -208 -736
WIRE -208 -704 -256 -704
WIRE -160 -704 -208 -704
WIRE 1104 -704 1056 -704
WIRE 1280 -704 1280 -720
WIRE -544 -688 -752 -688
WIRE -256 -688 -256 -704
WIRE -160 -688 -160 -704
WIRE 1056 -640 1056 -704
WIRE -752 -624 -752 -688
WIRE 464 -624 464 -656
WIRE 544 -624 544 -640
WIRE 1136 -624 1136 -688
WIRE -544 -608 -544 -688
WIRE -160 -608 -160 -624
WIRE 32 -608 32 -672
WIRE 32 -608 -160 -608
WIRE 144 -608 32 -608
WIRE 240 -608 144 -608
WIRE -256 -592 -256 -624
WIRE -256 -592 -336 -592
WIRE 1280 -592 1280 -624
WIRE -752 -576 -752 -624
WIRE -256 -560 -256 -592
WIRE -160 -560 -160 -608
WIRE 32 -560 32 -608
WIRE 144 -560 144 -608
WIRE 240 -560 240 -608
WIRE 1392 -560 1392 -720
WIRE 1536 -560 1392 -560
WIRE 1536 -544 1392 -544
WIRE 1840 -528 1616 -528
WIRE -544 -512 -544 -528
WIRE -448 -512 -448 -736
WIRE -448 -512 -544 -512
WIRE 464 -512 464 -544
WIRE 544 -512 544 -544
WIRE -544 -480 -544 -512
WIRE 32 -448 32 -480
WIRE 32 -448 -32 -448
WIRE 144 -448 144 -496
WIRE 144 -448 32 -448
WIRE 240 -448 240 -496
WIRE 240 -448 144 -448
WIRE -256 -432 -256 -496
WIRE -208 -432 -256 -432
WIRE -160 -432 -160 -496
WIRE -160 -432 -208 -432
WIRE -32 -432 -32 -448
WIRE 32 -416 32 -448
WIRE 1136 -416 1136 -464
WIRE 144 -400 144 -448
WIRE 240 -400 240 -448
WIRE 1104 -400 1008 -400
WIRE 1280 -384 1168 -384
WIRE 1392 -384 1392 -544
WIRE 1392 -384 1280 -384
WIRE 464 -368 464 -432
WIRE 544 -368 544 -432
WIRE 1104 -368 1056 -368
WIRE 1280 -368 1280 -384
WIRE -752 -336 -752 -496
WIRE -544 -336 -544 -400
WIRE -544 -336 -752 -336
WIRE -208 -336 -208 -432
WIRE -208 -336 -544 -336
WIRE 1056 -304 1056 -368
WIRE -336 -288 -336 -592
WIRE 32 -288 32 -336
WIRE 32 -288 -336 -288
WIRE 144 -288 144 -336
WIRE 144 -288 32 -288
WIRE 240 -288 240 -336
WIRE 240 -288 144 -288
WIRE 1136 -288 1136 -352
WIRE 1280 -256 1280 -288
WIRE 32 -240 32 -288
WIRE 1264 -96 1168 -96
WIRE 1424 -96 1328 -96
WIRE 464 -16 464 -64
WIRE 1168 16 1168 -96
WIRE 1248 16 1168 16
WIRE 1424 16 1424 -96
WIRE 1424 16 1328 16
WIRE -384 64 -384 32
WIRE -80 80 -80 64
WIRE 16 80 16 0
WIRE 16 80 -80 80
WIRE 16 112 16 80
WIRE 464 128 464 64
WIRE 1168 128 1168 16
WIRE 1168 128 1152 128
WIRE 1264 128 1168 128
WIRE 1424 144 1424 16
WIRE 1424 144 1328 144
WIRE 1648 144 1424 144
WIRE 1264 160 1248 160
WIRE -384 176 -384 144
WIRE 16 208 16 192
WIRE 464 224 464 208
WIRE 656 224 464 224
WIRE 1248 256 1248 160
WIRE 464 272 464 224
WIRE -384 384 -384 256
WIRE 16 384 16 288
WIRE 1232 416 1136 416
WIRE 1392 416 1296 416
WIRE 464 432 464 352
WIRE 1136 528 1136 416
WIRE 1216 528 1136 528
WIRE 1392 528 1392 416
WIRE 1392 528 1296 528
WIRE 1136 640 1136 528
WIRE 1136 640 1120 640
WIRE 1232 640 1136 640
WIRE 1392 656 1392 528
WIRE 1392 656 1296 656
WIRE 1616 656 1392 656
WIRE 1232 672 1216 672
WIRE 1216 768 1216 672
FLAG -384 384 0
FLAG -384 32 NOISE
FLAG 16 384 0
FLAG 16 0 WALL_INPUT
FLAG -80 64 NOISE
FLAG 464 432 0
FLAG 464 -64 WALL_INPUT
FLAG 656 224 volt_sensor
FLAG 464 -368 0
FLAG 544 -368 0
FLAG 464 -656 WALL_INPUT
FLAG 544 -640 current_sensor
FLAG -752 -624 NOISE
FLAG -32 -432 0
FLAG 32 -240 V-
FLAG 32 -672 V+
FLAG 1056 -640 0
FLAG 1136 -624 V+
FLAG 1008 -736 current_sensor
FLAG 1280 -592 0
FLAG 1136 -800 0
FLAG 1056 -304 0
FLAG 1136 -288 V+
FLAG 1280 -256 0
FLAG 1136 -464 0
FLAG 1008 -400 volt_sensor
FLAG 1840 -528 MICRO_PHASE
FLAG 1248 256 0
FLAG 1072 128 LOW_PASS_IN_1
FLAG 1648 144 LOW_PASS_OUT_1
FLAG 1216 768 0
FLAG 1040 640 LOW_PASS_IN_2
FLAG 1616 656 LOW_PASS_OUT_2
SYMBOL bv -384 160 R0
SYMATTR InstName B1
SYMATTR Value V=(2*WHITE(4030*time))
SYMBOL Misc\\signal 16 192 R0
WINDOW 123 0 0 Left 2
WINDOW 39 0 0 Left 2
SYMATTR InstName V1
SYMATTR Value SINE(0 110 60)
SYMBOL res 0 96 R0
SYMATTR InstName R2
SYMATTR Value 0
SYMBOL res -400 48 R0
SYMATTR InstName R3
SYMATTR Value 1
SYMBOL res 448 256 R0
SYMATTR InstName R5
SYMATTR Value 1000000
SYMBOL res 448 112 R0
SYMATTR InstName R9
SYMATTR Value 50000000
SYMBOL res 448 -32 R0
SYMATTR InstName R10
SYMATTR Value 50000000
SYMBOL res -560 -624 R0
SYMATTR InstName R1
SYMATTR Value 11
SYMBOL res -560 -496 R0
SYMATTR InstName R4
SYMATTR Value 1
SYMBOL ind2 448 -528 R0
SYMATTR InstName L1
SYMATTR Value 100
SYMATTR Type ind
SYMBOL ind2 528 -528 R0
SYMATTR InstName L2
SYMATTR Value 0.08
SYMATTR Type ind
SYMBOL res 448 -640 R0
SYMATTR InstName R6
SYMATTR Value 1
SYMBOL res 528 -640 R0
SYMATTR InstName R7
SYMATTR Value 1
SYMBOL diode -240 -624 R180
WINDOW 0 24 64 Left 2
WINDOW 3 24 0 Left 2
SYMATTR InstName D1
SYMBOL diode -272 -560 R0
SYMATTR InstName D2
SYMBOL diode -176 -688 R0
SYMATTR InstName D3
SYMBOL diode -144 -496 R180
WINDOW 0 24 64 Left 2
WINDOW 3 24 0 Left 2
SYMATTR InstName D4
SYMBOL res 16 -576 R0
SYMATTR InstName R8
SYMATTR Value 100k
SYMBOL Misc\\signal -752 -592 R0
WINDOW 123 0 0 Left 2
WINDOW 39 0 0 Left 2
SYMATTR InstName V2
SYMATTR Value SINE(0 110 60)
SYMBOL cap 128 -560 R0
SYMATTR InstName C1
SYMATTR Value 0.01
SYMBOL cap 224 -560 R0
SYMATTR InstName C2
SYMATTR Value 0.1
SYMBOL res 16 -432 R0
SYMATTR InstName R11
SYMATTR Value 100k
SYMBOL cap 128 -400 R0
SYMATTR InstName C3
SYMATTR Value 0.01
SYMBOL cap 224 -400 R0
SYMATTR InstName C4
SYMATTR Value 0.1
SYMBOL res 1264 -720 R0
SYMATTR InstName R12
SYMATTR Value 1
SYMBOL Opamps\\AD8606 1136 -656 M180
SYMATTR InstName U1
SYMBOL res 1264 -384 R0
SYMATTR InstName R13
SYMATTR Value 1
SYMBOL Opamps\\AD8606 1136 -320 M180
SYMATTR InstName U2
SYMBOL Digital\\xor 1584 -608 R0
SYMATTR InstName A1
SYMBOL Opamps\\AD8034 1296 80 R0
SYMATTR InstName U3
SYMBOL res 1344 0 R90
WINDOW 0 0 56 VBottom 2
WINDOW 3 32 56 VTop 2
SYMATTR InstName R14
SYMATTR Value 1
SYMBOL res 1168 112 R90
WINDOW 0 0 56 VBottom 2
WINDOW 3 32 56 VTop 2
SYMATTR InstName R15
SYMATTR Value 1
SYMBOL cap 1328 -112 R90
WINDOW 0 0 32 VBottom 2
WINDOW 3 32 32 VTop 2
SYMATTR InstName C5
SYMATTR Value 1
SYMBOL Opamps\\AD8034 1264 592 R0
SYMATTR InstName U4
SYMBOL res 1312 512 R90
WINDOW 0 0 56 VBottom 2
WINDOW 3 32 56 VTop 2
SYMATTR InstName R16
SYMATTR Value 1
SYMBOL res 1136 624 R90
WINDOW 0 0 56 VBottom 2
WINDOW 3 32 56 VTop 2
SYMATTR InstName R17
SYMATTR Value 1
SYMBOL cap 1296 400 R90
WINDOW 0 0 32 VBottom 2
WINDOW 3 32 32 VTop 2
SYMATTR InstName C6
SYMATTR Value 1
TEXT -688 -96 Left 2 !.tran 4
TEXT 464 -312 Left 2 !k L1 L2 1
